[General]
network = BabelShowcase
scheduler-class = "inet::RealTimeScheduler"
sim-time-limit = 3600s

*.visualizer.interfaceTableVisualizer[0].displayInterfaceTables = true
*.visualizer.mediumVisualizer[0].displayCommunicationRanges = true
*.visualizer.dataLinkVisualizer[0].displayLinks = true
*.visualizer.dataLinkVisualizer[0].lineColor = "red1"
*.visualizer.dataLinkVisualizer[0].packetFilter = "**"
*.visualizer.*.visualization = "signalPropagation"

*.*.wlan[*].mac.fcsMode = "computed"

*.*.wlan[*].radio.transmitter.power = 2mW # reduces communication range to get non-trivial pathes

*.host*.wlan[0].typename = "ExtUpperIeee80211Interface"
*.host*.wlan[0].copyConfiguration = "copyFromExt"
*.hostA.wlan[0].device = "taps1-eth2"
*.hostB.wlan[0].device = "taps2-eth2"
